<?xml version="1.0" encoding="UTF-8"?>

<!-- generated on 2026-04-16 11:17:02.940991 by Eclipse SUMO osmWebWizard.py v1_26_0+0000-fa7df22d7f1
<configuration>
    <net-file value="C:\Users\VRP\Sumo\2026-04-16-11-16-48\osm.net.xml.gz"/>
    <output-trip-file value="C:\Users\VRP\Sumo\2026-04-16-11-16-48\osm.passenger.trips.xml"/>
    <route-file value="C:\Users\VRP\Sumo\2026-04-16-11-16-48\osm.passenger.rou.xml"/>
    <prefix value="veh"/>
    <trip-attributes value="departLane=&quot;best&quot;"/>
    <fringe-start-attributes value="departSpeed=&quot;max&quot;"/>
    <vehicle-class value="passenger"/>
    <lanes value="True"/>
    <fringe-factor value="5"/>
    <allow-fringe.min-length value="1000.0"/>
    <edge-permission value="passenger"/>
    <via-edge-types value="highway.motorway,highway.motorway_link,highway.trunk_link,highway.primary_link,highway.secondary_link,highway.tertiary_link"/>
    <min-distance value="300.0"/>
    <min-distance.fringe value="10.0"/>
    <remove-loops value="True"/>
    <insertion-density value="12.0"/>
</configuration>
-->

<routes xmlns:xsi="http://www.w3.org/2001/XMLSchema-instance" xsi:noNamespaceSchemaLocation="http://sumo.dlr.de/xsd/routes_file.xsd">
    <vType id="veh_passenger" vClass="passenger"/>
    <trip id="veh0" depart="0.00" from="23029691#0" to="-112028488" departLane="best" type="veh_passenger"/>
    <trip id="veh1" depart="3.30" from="-37763929#1" to="107215079#0-AddedOnRampEdge" departLane="best" type="veh_passenger"/>
    <trip id="veh2" depart="6.60" from="-328837820" to="1368125926#0" departLane="best" type="veh_passenger" departSpeed="max"/>
    <trip id="veh3" depart="9.91" from="-1094091829" to="-796846472#1" departLane="best" type="veh_passenger" departSpeed="max"/>
    <trip id="veh4" depart="13.21" from="23029705#0" to="173470558#0" departLane="best" type="veh_passenger"/>
    <trip id="veh5" depart="16.51" from="37763921#1" to="-1093707705#0" departLane="best" type="veh_passenger"/>
    <trip id="veh6" depart="19.81" from="37763917#6" to="28137491#1" departLane="best" type="veh_passenger"/>
    <trip id="veh7" depart="23.11" from="-758967734#0" to="-37763930#1" departLane="best" type="veh_passenger"/>
    <trip id="veh8" depart="26.42" from="-112657835#8" to="-28126801#3" departLane="best" type="veh_passenger" departSpeed="max"/>
    <trip id="veh9" depart="29.72" from="401997649" to="23029701#0" departLane="best" type="veh_passenger" departSpeed="max"/>
    <trip id="veh10" depart="33.02" from="37763920" to="328837820" departLane="best" type="veh_passenger"/>
    <trip id="veh11" depart="36.32" from="1307397842#0" to="763290544#4" departLane="best" type="veh_passenger"/>
    <trip id="veh12" depart="39.63" from="37763929#2" to="23029710#0" departLane="best" type="veh_passenger"/>
    <trip id="veh13" depart="42.93" from="461556535#0" to="23029281#4" departLane="best" type="veh_passenger" departSpeed="max"/>
    <trip id="veh14" depart="46.23" from="27007398#0" to="-112657837#2" departLane="best" type="veh_passenger"/>
    <trip id="veh15" depart="49.53" from="-1125692659#1" to="107215083#0" departLane="best" type="veh_passenger" departSpeed="max"/>
    <trip id="veh16" depart="52.83" from="-1156298789" to="1094093752" departLane="best" type="veh_passenger" departSpeed="max"/>
    <trip id="veh17" depart="56.14" from="23029284#7" to="112657835#0" departLane="best" type="veh_passenger"/>
    <trip id="veh18" depart="59.44" from="107215077#0" to="1015024219" departLane="best" type="veh_passenger"/>
    <trip id="veh19" depart="62.74" from="-37763924#3" to="638541502#0" departLane="best" type="veh_passenger"/>
    <trip id="veh20" depart="66.04" from="23029701#9" to="23029705#0" departLane="best" type="veh_passenger"/>
    <trip id="veh21" depart="69.34" from="-173470558#1" to="328837820" departLane="best" type="veh_passenger" departSpeed="max"/>
    <trip id="veh22" depart="72.65" from="-172955372#7" to="1148395508#0" departLane="best" type="veh_passenger" departSpeed="max"/>
    <trip id="veh23" depart="75.95" from="766406223#0" to="239572011#5" departLane="best" type="veh_passenger"/>
    <trip id="veh24" depart="79.25" from="133632534#0" to="27946093#0" departLane="best" type="veh_passenger"/>
    <trip id="veh25" depart="82.55" from="38773814#3" to="36913434#6" departLane="best" type="veh_passenger"/>
    <trip id="veh26" depart="85.85" from="-362418047#1" to="-1125385914" departLane="best" type="veh_passenger"/>
    <trip id="veh27" depart="89.16" from="-553253474" to="1093707708#0" departLane="best" type="veh_passenger" departSpeed="max"/>
    <trip id="veh28" depart="92.46" from="-328837817" to="705023783#0" departLane="best" type="veh_passenger" departSpeed="max"/>
    <trip id="veh29" depart="95.76" from="464465211#0" to="1106057235#0" departLane="best" type="veh_passenger"/>
    <trip id="veh30" depart="99.06" from="23029706" to="1168178847#2" departLane="best" type="veh_passenger"/>
    <trip id="veh31" depart="102.36" from="638541495#2" to="1308629011" departLane="best" type="veh_passenger"/>
    <trip id="veh32" depart="105.67" from="-37763924#1" to="107215088#3" departLane="best" type="veh_passenger"/>
    <trip id="veh33" depart="108.97" from="1349935083" to="1093707706" departLane="best" type="veh_passenger"/>
    <trip id="veh34" depart="112.27" from="161416663#0" to="542070644#0" departLane="best" type="veh_passenger"/>
    <trip id="veh35" depart="115.57" from="1098787264#0" to="107215077#4" departLane="best" type="veh_passenger"/>
    <trip id="veh36" depart="118.88" from="91890605#0" to="1373661996" departLane="best" type="veh_passenger"/>
    <trip id="veh37" depart="122.18" from="-112657835#8" to="-1136281758#5" departLane="best" type="veh_passenger" departSpeed="max"/>
    <trip id="veh38" depart="125.48" from="377261618#0" to="1227534098#0" departLane="best" type="veh_passenger"/>
    <trip id="veh39" depart="128.78" from="-112028489" to="1150927562#0" departLane="best" type="veh_passenger" departSpeed="max"/>
    <trip id="veh40" depart="132.08" from="915684608#0" to="172903807#2" departLane="best" type="veh_passenger"/>
    <trip id="veh41" depart="135.39" from="760889232#0" to="464465211#0" departLane="best" type="veh_passenger" departSpeed="max"/>
    <trip id="veh42" depart="138.69" from="-1089717992" to="328837817" departLane="best" type="veh_passenger" departSpeed="max"/>
    <trip id="veh43" depart="141.99" from="239572010#3" to="172955372#4" departLane="best" type="veh_passenger"/>
    <trip id="veh44" depart="145.29" from="-1183372579#0" to="124316745#13" departLane="best" type="veh_passenger"/>
    <trip id="veh45" depart="148.59" from="1125542419#3" to="758944900#1" departLane="best" type="veh_passenger"/>
    <trip id="veh46" depart="151.90" from="461556535#5" to="1093707706" departLane="best" type="veh_passenger"/>
    <trip id="veh47" depart="155.20" from="1205171802#0" to="-720099000#1" departLane="best" type="veh_passenger" departSpeed="max"/>
    <trip id="veh48" depart="158.50" from="553253473#0" to="473959560#2" departLane="best" type="veh_passenger"/>
    <trip id="veh49" depart="161.80" from="-45308260#6" to="239572011#5" departLane="best" type="veh_passenger"/>
    <trip id="veh50" depart="165.10" from="208701339#0" to="-37763929#0" departLane="best" type="veh_passenger"/>
    <trip id="veh51" depart="168.41" from="36332256#0" to="172920283-AddedOffRampEdge" departLane="best" type="veh_passenger" departSpeed="max"/>
    <trip id="veh52" depart="171.71" from="-1014276813#0" to="1112419800" departLane="best" type="veh_passenger"/>
    <trip id="veh53" depart="175.01" from="-1093707706" to="603115724#0" departLane="best" type="veh_passenger" departSpeed="max"/>
    <trip id="veh54" depart="178.31" from="464465211#0" to="38773284#0" departLane="best" type="veh_passenger"/>
    <trip id="veh55" depart="181.61" from="-52060801" to="-1349935083" departLane="best" type="veh_passenger" departSpeed="max"/>
    <trip id="veh56" depart="184.92" from="464465211#0" to="72099280#0" departLane="best" type="veh_passenger"/>
    <trip id="veh57" depart="188.22" from="-112028491#3" to="36853688#4" departLane="best" type="veh_passenger" departSpeed="max"/>
    <trip id="veh58" depart="191.52" from="1150927562#0" to="173470559#0" departLane="best" type="veh_passenger"/>
    <trip id="veh59" depart="194.82" from="-37763924#1" to="484510040#0" departLane="best" type="veh_passenger"/>
    <trip id="veh60" depart="198.13" from="1112419801" to="1049316087#0" departLane="best" type="veh_passenger" departSpeed="max"/>
    <trip id="veh61" depart="201.43" from="1308654687#0" to="328837820" departLane="best" type="veh_passenger"/>
    <trip id="veh62" depart="204.73" from="-28126801#2" to="1101945532" departLane="best" type="veh_passenger"/>
    <trip id="veh63" depart="208.03" from="915684608#0" to="239572011#5" departLane="best" type="veh_passenger"/>
    <trip id="veh64" depart="211.33" from="112028497#0" to="1427058939#0" departLane="best" type="veh_passenger" departSpeed="max"/>
    <trip id="veh65" depart="214.64" from="-1202565698" to="107215079#0-AddedOnRampEdge" departLane="best" type="veh_passenger" departSpeed="max"/>
    <trip id="veh66" depart="217.94" from="-758967733#0" to="23029284#11" departLane="best" type="veh_passenger"/>
    <trip id="veh67" depart="221.24" from="-36332257#4" to="107215079#0" departLane="best" type="veh_passenger"/>
    <trip id="veh68" depart="224.54" from="-112028491#3" to="23443806#8" departLane="best" type="veh_passenger" departSpeed="max"/>
    <trip id="veh69" depart="227.84" from="-362418047#1" to="542070644#0" departLane="best" type="veh_passenger"/>
    <trip id="veh70" depart="231.15" from="461556535#0" to="-173435223#0" departLane="best" type="veh_passenger" departSpeed="max"/>
    <trip id="veh71" depart="234.45" from="-377261618#0" to="27007398#15" departLane="best" type="veh_passenger"/>
    <trip id="veh72" depart="237.75" from="-328837817" to="-37763917#3" departLane="best" type="veh_passenger" departSpeed="max"/>
    <trip id="veh73" depart="241.05" from="730432812#0" to="23029281#2" departLane="best" type="veh_passenger" departSpeed="max"/>
    <trip id="veh74" depart="244.35" from="1148395508#0" to="377261618#1" departLane="best" type="veh_passenger"/>
    <trip id="veh75" depart="247.66" from="-112657837#7" to="124316745#10" departLane="best" type="veh_passenger"/>
    <trip id="veh76" depart="250.96" from="1112419801" to="1308629017#4" departLane="best" type="veh_passenger" departSpeed="max"/>
    <trip id="veh77" depart="254.26" from="28126801#2" to="27007398#8" departLane="best" type="veh_passenger"/>
    <trip id="veh78" depart="257.56" from="763405053" to="-28126801#6" departLane="best" type="veh_passenger"/>
    <trip id="veh79" depart="260.86" from="461556535#0" to="107215088#3" departLane="best" type="veh_passenger" departSpeed="max"/>
    <trip id="veh80" depart="264.17" from="1112419801" to="1094100012#0" departLane="best" type="veh_passenger" departSpeed="max"/>
    <trip id="veh81" depart="267.47" from="-377262076#1" to="553253478#0" departLane="best" type="veh_passenger" departSpeed="max"/>
    <trip id="veh82" depart="270.77" from="1124838025#7" to="464465211#0" departLane="best" type="veh_passenger"/>
    <trip id="veh83" depart="274.07" from="133632532#0" to="-1168178848#2" departLane="best" type="veh_passenger" departSpeed="max"/>
    <trip id="veh84" depart="277.38" from="995154329#2" to="38773285#0" departLane="best" type="veh_passenger"/>
    <trip id="veh85" depart="280.68" from="760889232#0" to="603115724#0" departLane="best" type="veh_passenger" departSpeed="max"/>
    <trip id="veh86" depart="283.98" from="45308260#1" to="-401997649" departLane="best" type="veh_passenger"/>
    <trip id="veh87" depart="287.28" from="1183372579#0" to="1066895467#0" departLane="best" type="veh_passenger"/>
    <trip id="veh88" depart="290.58" from="1101271052#0" to="-1349935083" departLane="best" type="veh_passenger"/>
    <trip id="veh89" depart="293.89" from="107215079#0-AddedOnRampEdge" to="766406223#0" departLane="best" type="veh_passenger"/>
    <trip id="veh90" depart="297.19" from="1125542419#3-AddedOffRampEdge" to="1227534098#0" departLane="best" type="veh_passenger"/>
    <trip id="veh91" depart="300.49" from="758967733#0" to="995154329#2" departLane="best" type="veh_passenger"/>
    <trip id="veh92" depart="303.79" from="133632534#0" to="328837817" departLane="best" type="veh_passenger"/>
    <trip id="veh93" depart="307.09" from="760889232#0" to="23029281#4" departLane="best" type="veh_passenger" departSpeed="max"/>
    <trip id="veh94" depart="310.40" from="-1098787264#1" to="23029284#0-AddedOnRampEdge" departLane="best" type="veh_passenger" departSpeed="max"/>
    <trip id="veh95" depart="313.70" from="1227562843#0" to="45308260#7" departLane="best" type="veh_passenger"/>
    <trip id="veh96" depart="317.00" from="172955372#1" to="27007398#8" departLane="best" type="veh_passenger"/>
    <trip id="veh97" depart="320.30" from="-36883291#2" to="-36332257#4" departLane="best" type="veh_passenger" departSpeed="max"/>
    <trip id="veh98" depart="323.60" from="484510040#1" to="107215088#3" departLane="best" type="veh_passenger"/>
    <trip id="veh99" depart="326.91" from="172947338#1" to="23029715#0" departLane="best" type="veh_passenger"/>
    <trip id="veh100" depart="330.21" from="1112419801" to="23029284#0" departLane="best" type="veh_passenger" departSpeed="max"/>
    <trip id="veh101" depart="333.51" from="124316745#7" to="638541500#0" departLane="best" type="veh_passenger"/>
    <trip id="veh102" depart="336.81" from="-28126801#6" to="328837815" departLane="best" type="veh_passenger"/>
    <trip id="veh103" depart="340.11" from="-377261618#1" to="1168178848#0" departLane="best" type="veh_passenger"/>
    <trip id="veh104" depart="343.42" from="239572010#0" to="1098787277#0" departLane="best" type="veh_passenger" departSpeed="max"/>
    <trip id="veh105" depart="346.72" from="-553253476" to="36332257#1" departLane="best" type="veh_passenger"/>
    <trip id="veh106" depart="350.02" from="-112028491#3" to="1308629011" departLane="best" type="veh_passenger" departSpeed="max"/>
    <trip id="veh107" depart="353.32" from="995154329#1" to="997966828" departLane="best" type="veh_passenger"/>
    <trip id="veh108" depart="356.63" from="-1123304172" to="1049316088#0" departLane="best" type="veh_passenger" departSpeed="max"/>
    <trip id="veh109" depart="359.93" from="-37763924#1" to="638541500#0" departLane="best" type="veh_passenger"/>
    <trip id="veh110" depart="363.23" from="464465211#2" to="484510041#1" departLane="best" type="veh_passenger"/>
    <trip id="veh111" depart="366.53" from="107215077#0" to="-37763933" departLane="best" type="veh_passenger"/>
    <trip id="veh112" depart="369.83" from="37763933" to="28137491#1" departLane="best" type="veh_passenger"/>
    <trip id="veh113" depart="373.14" from="224621537#0" to="766406224#0" departLane="best" type="veh_passenger"/>
    <trip id="veh114" depart="376.44" from="23029705#0-AddedOffRampEdge" to="-1098770448" departLane="best" type="veh_passenger"/>
    <trip id="veh115" depart="379.74" from="37763924#0" to="1098787264#1" departLane="best" type="veh_passenger" departSpeed="max"/>
    <trip id="veh116" depart="383.04" from="23515741#0" to="705023782#0" departLane="best" type="veh_passenger" departSpeed="max"/>
    <trip id="veh117" depart="386.34" from="-1308629005" to="-36332256#2" departLane="best" type="veh_passenger" departSpeed="max"/>
    <trip id="veh118" depart="389.65" from="-37763926#4" to="23029701#5" departLane="best" type="veh_passenger"/>
    <trip id="veh119" depart="392.95" from="27946046#4" to="1014276813#1" departLane="best" type="veh_passenger"/>
    <trip id="veh120" depart="396.25" from="23029284#7" to="1093707706" departLane="best" type="veh_passenger"/>
    <trip id="veh121" depart="399.55" from="1196514126#0" to="542070644#0" departLane="best" type="veh_passenger"/>
    <trip id="veh122" depart="402.85" from="401997649" to="-28126801#12" departLane="best" type="veh_passenger" departSpeed="max"/>
    <trip id="veh123" depart="406.16" from="1112419801" to="1094093752" departLane="best" type="veh_passenger" departSpeed="max"/>
    <trip id="veh124" depart="409.46" from="-1014276813#1" to="36913434#6" departLane="best" type="veh_passenger" departSpeed="max"/>
    <trip id="veh125" depart="412.76" from="23029284#9" to="1093707706" departLane="best" type="veh_passenger"/>
    <trip id="veh126" depart="416.06" from="1113076998#0" to="-1098770448" departLane="best" type="veh_passenger"/>
    <trip id="veh127" depart="419.36" from="544759838#0" to="173470558#0" departLane="best" type="veh_passenger"/>
    <trip id="veh128" depart="422.67" from="-1308629017#4" to="-377262075#0" departLane="best" type="veh_passenger" departSpeed="max"/>
    <trip id="veh129" depart="425.97" from="-52060801" to="542070644#0" departLane="best" type="veh_passenger" departSpeed="max"/>
    <trip id="veh130" depart="429.27" from="377261619#2" to="464465211#0" departLane="best" type="veh_passenger"/>
    <trip id="veh131" depart="432.57" from="542070647#0" to="1015024219" departLane="best" type="veh_passenger"/>
    <trip id="veh132" depart="435.88" from="1101945532" to="23443806#0" departLane="best" type="veh_passenger"/>
    <trip id="veh133" depart="439.18" from="461556535#0" to="763290548#0" departLane="best" type="veh_passenger" departSpeed="max"/>
    <trip id="veh134" depart="442.48" from="-1093707708#1" to="328839327#2" departLane="best" type="veh_passenger" departSpeed="max"/>
    <trip id="veh135" depart="445.78" from="37763917#1" to="464465211#2" departLane="best" type="veh_passenger"/>
    <trip id="veh136" depart="449.08" from="37763921#3" to="1093707708#0" departLane="best" type="veh_passenger"/>
    <trip id="veh137" depart="452.39" from="36913434#0" to="-332394783" departLane="best" type="veh_passenger"/>
    <trip id="veh138" depart="455.69" from="1125692661#0" to="1101271052#0" departLane="best" type="veh_passenger"/>
    <trip id="veh139" depart="458.99" from="377261619#0" to="107215079#4" departLane="best" type="veh_passenger"/>
    <trip id="veh140" depart="462.29" from="-1093707708#1" to="-758944903" departLane="best" type="veh_passenger" departSpeed="max"/>
    <trip id="veh141" depart="465.59" from="-758944893" to="464465211#2" departLane="best" type="veh_passenger"/>
    <trip id="veh142" depart="468.90" from="760889232#0" to="1094100012#0" departLane="best" type="veh_passenger" departSpeed="max"/>
    <trip id="veh143" depart="472.20" from="23029696#0" to="1183372579#1" departLane="best" type="veh_passenger"/>
    <trip id="veh144" depart="475.50" from="763290548#0" to="172955372#4" departLane="best" type="veh_passenger"/>
    <trip id="veh145" depart="478.80" from="730432812#0" to="-36332256#2" departLane="best" type="veh_passenger" departSpeed="max"/>
    <trip id="veh146" depart="482.10" from="760889232#0" to="-720099000#1" departLane="best" type="veh_passenger" departSpeed="max"/>
    <trip id="veh147" depart="485.41" from="760889232#0" to="1093707706" departLane="best" type="veh_passenger" departSpeed="max"/>
    <trip id="veh148" depart="488.71" from="28126801#2" to="1102326203#0" departLane="best" type="veh_passenger"/>
    <trip id="veh149" depart="492.01" from="180375723#3" to="1387723070#0" departLane="best" type="veh_passenger"/>
    <trip id="veh150" depart="495.31" from="1087129032#0" to="23029281#4" departLane="best" type="veh_passenger"/>
    <trip id="veh151" depart="498.61" from="-37763917#5" to="325833348" departLane="best" type="veh_passenger"/>
    <trip id="veh152" depart="501.92" from="-1014276813#1" to="603115724#0" departLane="best" type="veh_passenger" departSpeed="max"/>
    <trip id="veh153" depart="505.22" from="1308654687#0" to="328837817" departLane="best" type="veh_passenger"/>
    <trip id="veh154" depart="508.52" from="327550407#0" to="27007398#15" departLane="best" type="veh_passenger" departSpeed="max"/>
    <trip id="veh155" depart="511.82" from="1066870623#0" to="-172955372#3" departLane="best" type="veh_passenger" departSpeed="max"/>
    <trip id="veh156" depart="515.13" from="23515741#0" to="1112419800" departLane="best" type="veh_passenger" departSpeed="max"/>
    <trip id="veh157" depart="518.43" from="-553253474" to="43469902#0" departLane="best" type="veh_passenger" departSpeed="max"/>
    <trip id="veh158" depart="521.73" from="27946060#0" to="1098787277#0" departLane="best" type="veh_passenger"/>
    <trip id="veh159" depart="525.03" from="-52060801" to="1196514128#0" departLane="best" type="veh_passenger" departSpeed="max"/>
    <trip id="veh160" depart="528.33" from="1101271052#2" to="1098787264#1" departLane="best" type="veh_passenger"/>
    <trip id="veh161" depart="531.64" from="-1224538501" to="1224538514" departLane="best" type="veh_passenger" departSpeed="max"/>
    <trip id="veh162" depart="534.94" from="730432812#0" to="27946046#4" departLane="best" type="veh_passenger" departSpeed="max"/>
    <trip id="veh163" depart="538.24" from="544759838#0" to="23029710#0" departLane="best" type="veh_passenger"/>
    <trip id="veh164" depart="541.54" from="-484510040#0" to="173470559#0" departLane="best" type="veh_passenger"/>
    <trip id="veh165" depart="544.84" from="-1014276813#0" to="1096187536#1" departLane="best" type="veh_passenger"/>
    <trip id="veh166" depart="548.15" from="111997552#0" to="23029281#4" departLane="best" type="veh_passenger" departSpeed="max"/>
    <trip id="veh167" depart="551.45" from="23029705#0-AddedOffRampEdge" to="1308629017#0" departLane="best" type="veh_passenger"/>
    <trip id="veh168" depart="554.75" from="112028497#0" to="1066895467#0" departLane="best" type="veh_passenger" departSpeed="max"/>
    <trip id="veh169" depart="558.05" from="1148395508#0" to="542070644#0" departLane="best" type="veh_passenger"/>
    <trip id="veh170" depart="561.35" from="377261619#2" to="-401997649" departLane="best" type="veh_passenger"/>
    <trip id="veh171" depart="564.66" from="-1125877418#1" to="142664922#0" departLane="best" type="veh_passenger"/>
    <trip id="veh172" depart="567.96" from="37763924#0" to="36332257#0" departLane="best" type="veh_passenger" departSpeed="max"/>
    <trip id="veh173" depart="571.26" from="239572010#0" to="107215079#0-AddedOnRampEdge" departLane="best" type="veh_passenger" departSpeed="max"/>
    <trip id="veh174" depart="574.56" from="-28126801#16" to="-112028488" departLane="best" type="veh_passenger"/>
    <trip id="veh175" depart="577.86" from="-377262075#3" to="1308654713" departLane="best" type="veh_passenger"/>
    <trip id="veh176" depart="581.17" from="45308260#5" to="-173470557#0" departLane="best" type="veh_passenger"/>
    <trip id="veh177" depart="584.47" from="1109956875" to="23443806#8" departLane="best" type="veh_passenger"/>
    <trip id="veh178" depart="587.77" from="-27946060#3" to="28137491#1" departLane="best" type="veh_passenger"/>
    <trip id="veh179" depart="591.07" from="1205171802#0" to="107215088#3" departLane="best" type="veh_passenger" departSpeed="max"/>
    <trip id="veh180" depart="594.38" from="23029706" to="-1093604005#1" departLane="best" type="veh_passenger"/>
    <trip id="veh181" depart="597.68" from="327550407#4" to="36913434#0" departLane="best" type="veh_passenger"/>
    <trip id="veh182" depart="600.98" from="-173470559#1" to="758944903" departLane="best" type="veh_passenger" departSpeed="max"/>
    <trip id="veh183" depart="604.28" from="124316745#13" to="-1168178848#2" departLane="best" type="veh_passenger"/>
    <trip id="veh184" depart="607.58" from="1125542419#3-AddedOffRampEdge" to="37763917#7" departLane="best" type="veh_passenger"/>
    <trip id="veh185" depart="610.89" from="239572010#0" to="766406224#0" departLane="best" type="veh_passenger" departSpeed="max"/>
    <trip id="veh186" depart="614.19" from="172955372#1" to="758944896" departLane="best" type="veh_passenger"/>
    <trip id="veh187" depart="617.49" from="27946046#7" to="1368125926#0" departLane="best" type="veh_passenger"/>
    <trip id="veh188" depart="620.79" from="37763929#3" to="173470559#0" departLane="best" type="veh_passenger"/>
    <trip id="veh189" depart="624.09" from="1150927562#0" to="1093604004" departLane="best" type="veh_passenger"/>
    <trip id="veh190" depart="627.40" from="328839327#2" to="1461533619#0" departLane="best" type="veh_passenger"/>
    <trip id="veh191" depart="630.70" from="23029284#0-AddedOnRampEdge" to="1094093752" departLane="best" type="veh_passenger"/>
    <trip id="veh192" depart="634.00" from="-1125692659#1" to="1096187536#1" departLane="best" type="veh_passenger" departSpeed="max"/>
    <trip id="veh193" depart="637.30" from="-37763926#4" to="1110192329#0" departLane="best" type="veh_passenger"/>
    <trip id="veh194" depart="640.60" from="1308654687#0" to="-37763921#1" departLane="best" type="veh_passenger"/>
    <trip id="veh195" depart="643.91" from="-36883291#1" to="28126801#5" departLane="best" type="veh_passenger"/>
    <trip id="veh196" depart="647.21" from="1101945532" to="173470558#0" departLane="best" type="veh_passenger"/>
    <trip id="veh197" depart="650.51" from="1110192328#0" to="1015024215" departLane="best" type="veh_passenger"/>
    <trip id="veh198" depart="653.81" from="1112419801" to="542070644#0" departLane="best" type="veh_passenger" departSpeed="max"/>
    <trip id="veh199" depart="657.11" from="161416663#0" to="28126801#7" departLane="best" type="veh_passenger"/>
    <trip id="veh200" depart="660.42" from="461556535#0" to="36883291#2" departLane="best" type="veh_passenger" departSpeed="max"/>
    <trip id="veh201" depart="663.72" from="107215079#0-AddedOnRampEdge" to="-1093604005#1" departLane="best" type="veh_passenger"/>
    <trip id="veh202" depart="667.02" from="1014276813#0" to="36332258#0" departLane="best" type="veh_passenger"/>
    <trip id="veh203" depart="670.32" from="461556535#0" to="758944900#1" departLane="best" type="veh_passenger" departSpeed="max"/>
    <trip id="veh204" depart="673.63" from="132191817#0" to="23029701#0" departLane="best" type="veh_passenger"/>
    <trip id="veh205" depart="676.93" from="-328839325" to="107215077#4" departLane="best" type="veh_passenger"/>
    <trip id="veh206" depart="680.23" from="-758944901" to="27946046#7" departLane="best" type="veh_passenger"/>
    <trip id="veh207" depart="683.53" from="1101945532" to="-38773814#7" departLane="best" type="veh_passenger"/>
    <trip id="veh208" depart="686.83" from="112657837#0" to="-377262075#0" departLane="best" type="veh_passenger"/>
    <trip id="veh209" depart="690.14" from="1096797091#0" to="213087110#0" departLane="best" type="veh_passenger"/>
    <trip id="veh210" depart="693.44" from="-1094091829" to="239572011#5" departLane="best" type="veh_passenger" departSpeed="max"/>
    <trip id="veh211" depart="696.74" from="-1308629005" to="1308629012" departLane="best" type="veh_passenger" departSpeed="max"/>
    <trip id="veh212" depart="700.04" from="-1098770446" to="1148395508#0" departLane="best" type="veh_passenger" departSpeed="max"/>
    <trip id="veh213" depart="703.34" from="-328837817" to="1112419800" departLane="best" type="veh_passenger" departSpeed="max"/>
    <trip id="veh214" depart="706.65" from="328839325" to="1148395508#0" departLane="best" type="veh_passenger"/>
    <trip id="veh215" depart="709.95" from="328758433#0" to="38773284#0" departLane="best" type="veh_passenger" departSpeed="max"/>
    <trip id="veh216" depart="713.25" from="-37763917#3" to="-226972108#3" departLane="best" type="veh_passenger"/>
    <trip id="veh217" depart="716.55" from="-1093707706" to="172955372#4" departLane="best" type="veh_passenger" departSpeed="max"/>
    <trip id="veh218" depart="719.85" from="995154329#2" to="1125542419#1" departLane="best" type="veh_passenger"/>
    <trip id="veh219" depart="723.16" from="23029705#0" to="36967442#0" departLane="best" type="veh_passenger"/>
    <trip id="veh220" depart="726.46" from="23029705#0-AddedOffRampEdge" to="36853688#0" departLane="best" type="veh_passenger"/>
    <trip id="veh221" depart="729.76" from="758944898#0" to="-995154329#0" departLane="best" type="veh_passenger"/>
    <trip id="veh222" depart="733.06" from="-1093707706" to="-37763929#0" departLane="best" type="veh_passenger" departSpeed="max"/>
    <trip id="veh223" depart="736.36" from="-1224538501" to="27007398#15" departLane="best" type="veh_passenger" departSpeed="max"/>
    <trip id="veh224" depart="739.67" from="1368125926#0" to="107215077#4" departLane="best" type="veh_passenger"/>
    <trip id="veh225" depart="742.97" from="-173470557#2" to="23029701#9" departLane="best" type="veh_passenger"/>
    <trip id="veh226" depart="746.27" from="327550407#0" to="-36332256#2" departLane="best" type="veh_passenger" departSpeed="max"/>
    <trip id="veh227" depart="749.57" from="37763924#1" to="763290544#0" departLane="best" type="veh_passenger"/>
    <trip id="veh228" depart="752.88" from="758967733#1" to="1168178848#1" departLane="best" type="veh_passenger"/>
    <trip id="veh229" depart="756.18" from="27007398#8" to="-173470557#2" departLane="best" type="veh_passenger"/>
    <trip id="veh230" depart="759.48" from="24296042#3" to="23443806#8" departLane="best" type="veh_passenger"/>
    <trip id="veh231" depart="762.78" from="-1156298789" to="36913434#6" departLane="best" type="veh_passenger" departSpeed="max"/>
    <trip id="veh232" depart="766.08" from="45308260#5" to="23029696#0" departLane="best" type="veh_passenger"/>
    <trip id="veh233" depart="769.39" from="-1202565698" to="766406223#0" departLane="best" type="veh_passenger" departSpeed="max"/>
    <trip id="veh234" depart="772.69" from="111997552#0" to="112657835#8" departLane="best" type="veh_passenger" departSpeed="max"/>
    <trip id="veh235" depart="775.99" from="1227562844#0" to="1123304172" departLane="best" type="veh_passenger"/>